ConvexEnergyFunction/case14new.m
function mpc = case14new
%CASE14NEW

%% MATPOWER Case Format : Version 2
mpc.version = '2';

%%-----  Power Flow Data  -----%%
%% system MVA base
mpc.baseMVA = 100;

%% bus data
%	bus_i	type	Pd	Qd	Gs	Bs	area	Vm	Va	baseKV	zone	Vmax	Vmin
mpc.bus = [
	1	3	0	0	0	0	1	1.06	0	0	1	1.06	0.94;
	2	2	169.26	99.06	0	0	1	1.045	1.42448374	0	1	1.06	0.94;
	3	2	734.76	148.2	0	0	1	1.01	-25.0373058	0	1	1.06	0.94;
	4	2	372.84	-30.42	0	0	1	1.06	20.5149266	0	1	1.06	0.94;
	5	1	59.28	12.48	0	0	1	1.03367379	10.9283568	0	1	1.06	0.94;
	6	2	87.36	58.5	0	0	1	1.07	-10.9793576	0	1	1.06	0.94;
	7	1	0	0	0	0	1	1.05564207	10.4606961	0	1	1.06	0.94;
	8	2	0	0	0	0	1	1.09	10.4606961	0	1	1.06	0.94;
	9	2	230.1	129.48	0	0	1	1.045	5.1153724	0	1	1.06	0.94;
	10	2	70.2	45.24	0	0	1	1.01	-0.676588447	0	1	1.06	0.94;
	11	1	27.3	14.04	0	0	1	1.02089336	-7.24156179	0	1	1.06	0.94;
	12	1	47.58	12.48	0	0	1	1.01006882	-17.8002097	0	1	1.06	0.94;
	13	2	105.3	45.24	0	0	1	0.981961693	-18.0865284	0	1	1.06	0.94;
	14	1	116.22	39	0	0	1	0.910627926	-16.0658674	0	1	1.06	0.94;
];

%% generator data
%	bus	Pg	Qg	Qmax	Qmin	Vg	mBase	status	Pmax	Pmin	Pc1	Pc2	Qc1min	Qc1max	Qc2min	Qc2max	ramp_agc	ramp_10	ramp_30	ramp_q	apf
mpc.gen = [
	1	-156	45.023943	10	0	1.06	100	1	332.4	0	0	0	0	0	0	0	0	0	0	0	0;
	2	156	166.508525	50	-40	1.045	100	1	140	0	0	0	0	0	0	0	0	0	0	0	0;
	3	0	296.535162	40	0	1.01	100	1	100	0	0	0	0	0	0	0	0	0	0	0	0;
	6	0	203.539612	24	-6	1.07	100	1	100	0	0	0	0	0	0	0	0	0	0	0	0;
	8	0	21.2603741	24	-6	1.09	100	1	100	0	0	0	0	0	0	0	0	0	0	0	0;
	4	1708.2	317.144413	10	0	1.06	100	1	332.4	0	0	0	0	0	0	0	0	0	0	0	0;
	9	312	211.987152	50	-40	1.045	100	1	140	0	0	0	0	0	0	0	0	0	0	0	0;
	10	0	4.77604057	40	0	1.01	100	1	100	0	0	0	0	0	0	0	0	0	0	0	0;
	13	0	21.2603741	24	-6	1.09	100	1	100	0	0	0	0	0	0	0	0	0	0	0	0;
];

%% branch data
%	fbus	tbus	r	x	b	rateA	rateB	rateC	ratio	angle	status	angmin	angmax	Pf	Qf	Pt	Qt
mpc.branch = [
	1	2	0	0.0655175477	0	9900	0	0	0	0	1	-360	360	-42.0295	24.7908	42.0295	-23.4024;
	1	5	0	0.236128419	0	9900	0	0	0	0	1	-360	360	-87.9705	20.2331	87.9705	-3.1095;
	2	3	0	0.209123509	0	9900	0	0	0	0	1	-360	360	224.8955	70.3664	-224.8955	35.9728;
	2	4	0	0.195471384	0	9900	0	0	0	0	1	-360	360	-185.3390	23.1464	185.3390	39.2997;
	2	5	0	0.192532533	0	9900	0	0	0	0	1	-360	360	-92.6361	13.8481	92.6361	1.6198;
	3	4	0	0.197284693	0	9900	0	0	0	0	1	-360	360	-387.4045	137.0623	387.4045	189.5246;
	4	5	0	0.0463423082	0	9900	0	0	0	0	1	-360	360	393.7532	93.2346	-393.7532	-25.7032;
	4	7	0	0.20912	0	9900	0	0	0	0	1	-360	360	93.4162	10.4264	-93.4162	6.0175;
	4	9	0	0.55618	0	9900	0	0	0	0	1	-360	360	52.8872	10.0092	-52.8872	4.3321;
	5	6	0	0.25202	0	9900	0	0	0	0	1	-360	360	163.7466	16.7929	-163.7466	47.1153;
	6	11	0	0.244255457	0	9900	0	0	0	0	1	-360	360	-29.1544	22.4633	29.1544	-19.5734;
	6	12	0	0.314865033	0	9900	0	0	0	0	1	-360	360	40.7662	22.7957	-40.7662	-16.7962;
	6	13	0	0.163860408	0	9900	0	0	0	0	1	-360	360	79.3349	62.4154	-79.3349	-47.8317;
	7	8	0	0.17615	0	9900	0	0	0	0	1	-360	360	0.0000	-20.5902	0.0000	21.2604;
	7	9	0	0.11001	0	9900	0	0	0	0	1	-360	360	93.4162	14.5727	-93.4162	-5.7483;
	9	10	0	0.0964748651	0	9900	0	0	0	0	1	-360	360	110.4044	43.4965	-110.4044	-31.0566;
	9	14	0	0.330136462	0	9900	0	0	0	0	1	-360	360	104.1490	62.0069	-104.1490	-17.5911;
	10	11	0	0.227120776	0	9900	0	0	0	0	1	-360	360	51.9044	-1.8674	-51.9044	7.8734;
	12	13	0	0.444054737	0	9900	0	0	0	0	1	-360	360	1.1162	6.3962	-1.1162	-6.2127;
	13	14	0	0.431972258	0	9900	0	0	0	0	1	-360	360	-7.2990	16.3444	7.2990	-14.9089;
];

%%-----  OPF Data  -----%%
%% generator cost data
%	1	startup	shutdown	n	x1	y1	...	xn	yn
%	2	startup	shutdown	n	c(n-1)	...	c0
mpc.gencost = [
	2	0	0	3	0.0430293	20	0;
	2	0	0	3	0.25	20	0;
	2	0	0	3	0.01	40	0;
	2	0	0	3	0.01	40	0;
	2	0	0	3	0.01	40	0;
	4	0	0	3	0.0430293	20	0;
	9	0	0	3	0.25	20	0;
	10	0	0	3	0.01	40	0;
	2	0	0	3	0.0430293	20	0;
];
